Circuit: * D:\documents\ucb\singapore\sensezilla-hardware\test_current_meas.asc

Direct Newton iteration failed to find .op point.  (Use ".option noopiter" to skip.)
Starting Gmin stepping
Increasing initial diagonal Gmin to 100
Increasing initial diagonal Gmin to 1000
Increasing initial diagonal Gmin to 10000
Increasing initial diagonal Gmin to 100000
Increasing initial diagonal Gmin to 1e+006
Initial Gmin=1e+006 failed
Gmin stepping failed

Starting source stepping with srcstepmethod=0
Source Step = 3.0303%
Source Step = 33.3333%
Source Step = 63.6364%
Source Step = 93.9394%
Source stepping succeeded in finding the operating point.


Date: Wed Jul 31 16:43:54 2013
Total elapsed time: 0.134 seconds.

tnom = 27
temp = 27
method = modified trap
totiter = 3082
traniter = 2401
tranpoints = 1193
accept = 1163
rejected = 30
matrix size = 19
fillins = 28
solver = Normal
Matrix Compiler1: 2.24 KB object code size  0.8/0.3/[0.2]
Matrix Compiler2:     161 opcodes  0.4/[0.4]/0.7


